data_crystal

_audit_creation_method 'AiiDA-DDEC plugin'

_cell_length_a         6.99900
_cell_length_b        15.24393
_cell_length_c        15.24397

_cell_angle_alpha     117.69895
_cell_angle_beta     98.80448
_cell_angle_gamma     98.80708

_symmetry_space_group_name_Hall 'P 1'
_symmetry_space_group_name_H-M  'P 1'

loop_
_symmetry_equiv_pos_as_xyz
 'x,y,z'

loop_
_atom_site_label
_atom_site_type_symbol
_atom_site_fract_x
_atom_site_fract_y
_atom_site_fract_z
_atom_site_charge
C          C       0.35274   0.17129   0.60974   0.61938
C          C       0.16766   0.08548   0.55335  -0.12620
C          C       0.97267   0.10131   0.53659   0.30288
C          C       0.81056   0.01449   0.48312  -0.15924
C          C       0.74299   0.39029   0.56155   0.61716
C          C       0.61432   0.44668   0.53211  -0.12463
C          C       0.43609   0.46344   0.56472   0.30320
C          C       0.32745   0.51691   0.53136  -0.16065
C          C       0.18146   0.43848   0.82875   0.61821
C          C       0.08221   0.46791   0.91456  -0.12524
C          C       0.87137   0.43531   0.89872   0.30442
C          C       0.79610   0.46867   0.98555  -0.16109
C          C       0.64731   0.82876   0.39027   0.61957
C          C       0.83238   0.91457   0.44666  -0.12626
C          C       0.02737   0.89874   0.46342   0.30197
C          C       0.18948   0.98555   0.51689  -0.15879
C          C       0.25706   0.60977   0.43848   0.61813
C          C       0.38573   0.55337   0.46792  -0.12478
C          C       0.56397   0.53662   0.43532   0.30296
C          C       0.67260   0.48315   0.46868  -0.16088
C          C       0.81859   0.56156   0.17129   0.61709
C          C       0.91783   0.53213   0.08547  -0.12438
C          C       0.12866   0.56472   0.10129   0.30399
C          C       0.20394   0.53136   0.01447  -0.16053
H          H       0.66065   0.02504   0.46935   0.13421
H          H       0.19131   0.53068   0.55569   0.13428
H          H       0.63563   0.44435   0.97500   0.13424
H          H       0.33939   0.97500   0.53066   0.13417
H          H       0.80874   0.46937   0.44434   0.13448
H          H       0.36441   0.55569   0.02503   0.13417
O          O       0.33071   0.26288   0.64716  -0.60437
O          O       0.52341   0.15205   0.61879  -0.54223
O          O       0.93423   0.19484   0.56864  -0.61680
O          O       0.68356   0.35286   0.61572  -0.60374
O          O       0.90464   0.38125   0.53326  -0.54077
O          O       0.36560   0.43139   0.62620  -0.61712
O          O       0.06784   0.38429   0.73714  -0.60450
O          O       0.37139   0.46677   0.84799  -0.54128
O          O       0.73940   0.37382   0.80518  -0.61788
O          O       0.66933   0.73716   0.35286  -0.60451
O          O       0.47663   0.84799   0.38123  -0.54217
O          O       0.06581   0.80520   0.43138  -0.61650
O          O       0.31649   0.64718   0.38431  -0.60410
O          O       0.09541   0.61881   0.46677  -0.54105
O          O       0.63445   0.56867   0.37383  -0.61706
O          O       0.93219   0.61573   0.26287  -0.60372
O          O       0.62865   0.53327   0.15204  -0.54101
O          O       0.26063   0.62620   0.19483  -0.61789
Zn         Zn      0.10914   0.32911   0.59362   0.99284
Zn         Zn      0.51553   0.40640   0.73549   0.99212
Zn         Zn      0.78005   0.26454   0.67092   0.99250
Zn         Zn      0.89091   0.67094   0.40641   0.99295
Zn         Zn      0.48452   0.59364   0.26454   0.99228
Zn         Zn      0.21999   0.73550   0.32910   0.99218
